@<TRIPOS>MOLECULE
1498678
   144   157     1     0     0
SMALL
NO_CHARGES
****
Generated from the CSD

@<TRIPOS>ATOM
     1 Cu1      4.9244  -0.3319  11.1115   Cu        1 RES1   0.0000
     2 Cu2      1.8088   2.6159   7.8351   Cu        1 RES1   0.0000
     3 P1       4.6186  -2.5388  11.1528   P.3       1 RES1   0.0000
     4 P2       6.5280   0.7407  12.2054   P.3       1 RES1   0.0000
     5 P3       0.7686   1.5483   6.1670   P.3       1 RES1   0.0000
     6 P4       1.7272   4.8345   8.1014   P.3       1 RES1   0.0000
     7 O1       4.8160   0.2771   9.1266   O.co2     1 RES1   0.0000
     8 O2       2.9952   0.5356  11.1417   O.co2     1 RES1   0.0000
     9 O3       3.7513   1.8783   8.0033   O.co2     1 RES1   0.0000
    10 O4       1.6345   1.6140   9.7061   O.co2     1 RES1   0.0000
    11 C1       2.7226   1.0691  10.0258   C.2       1 RES1   0.0000
    12 C2       3.8538   1.0704   8.9619   C.2       1 RES1   0.0000
    13 C3       2.9766  -2.9540  10.4692   C.ar      1 RES1   0.0000
    14 C4       2.7357  -2.6569   9.1325   C.ar      1 RES1   0.0000
    15 H4A      3.4373  -2.3134   8.5914   H         1 RES1   0.0000
    16 C5       1.4759  -2.8609   8.5839   C.ar      1 RES1   0.0000
    17 H5A      1.3226  -2.6788   7.6637   H         1 RES1   0.0000
    18 C6       0.4472  -3.3304   9.3744   C.ar      1 RES1   0.0000
    19 H6A     -0.4160  -3.4659   9.0018   H         1 RES1   0.0000
    20 C7       0.6781  -3.6028  10.7067   C.ar      1 RES1   0.0000
    21 H7A     -0.0312  -3.9204  11.2522   H         1 RES1   0.0000
    22 C8       1.9382  -3.4139  11.2539   C.ar      1 RES1   0.0000
    23 H8A      2.0878  -3.6042  12.1722   H         1 RES1   0.0000
    24 C9       5.7535  -3.5823  10.1785   C.ar      1 RES1   0.0000
    25 C10      5.3823  -4.8320   9.6794   C.ar      1 RES1   0.0000
    26 H10A     4.4936  -5.1441   9.7996   H         1 RES1   0.0000
    27 C11      6.3086  -5.6219   9.0092   C.ar      1 RES1   0.0000
    28 H11A     6.0547  -6.4747   8.6773   H         1 RES1   0.0000
    29 C12      7.5982  -5.1647   8.8275   C.ar      1 RES1   0.0000
    30 H12A     8.2339  -5.7122   8.3814   H         1 RES1   0.0000
    31 C13      7.9711  -3.9135   9.2927   C.ar      1 RES1   0.0000
    32 H13A     8.8551  -3.5946   9.1526   H         1 RES1   0.0000
    33 C14      7.0478  -3.1319   9.9617   C.ar      1 RES1   0.0000
    34 H14A     7.3023  -2.2737  10.2787   H         1 RES1   0.0000
    35 C15      4.6309  -3.2976  12.8090   C.ar      1 RES1   0.0000
    36 C16      4.7359  -4.6733  13.0629   C.ar      1 RES1   0.0000
    37 H16A     4.8294  -5.2838  12.3421   H         1 RES1   0.0000
    38 C17      4.7011  -5.1400  14.3648   C.ar      1 RES1   0.0000
    39 H17A     4.7872  -6.0722  14.5296   H         1 RES1   0.0000
    40 C18      4.5424  -4.2722  15.4290   C.ar      1 RES1   0.0000
    41 H18A     4.4973  -4.6048  16.3181   H         1 RES1   0.0000
    42 C19      4.4511  -2.9170  15.1869   C.ar      1 RES1   0.0000
    43 H19A     4.3536  -2.3106  15.9115   H         1 RES1   0.0000
    44 C20      4.5019  -2.4420  13.8932   C.ar      1 RES1   0.0000
    45 H20A     4.4469  -1.5071  13.7412   H         1 RES1   0.0000
    46 C21      8.1579  -0.0890  12.1362   C.ar      1 RES1   0.0000
    47 C22      8.3509  -1.2580  12.8819   C.ar      1 RES1   0.0000
    48 H22A     7.6513  -1.5906  13.4320   H         1 RES1   0.0000
    49 C23      9.5603  -1.9314  12.8204   C.ar      1 RES1   0.0000
    50 H23A     9.6976  -2.7076  13.3499   H         1 RES1   0.0000
    51 C24     10.5722  -1.4756  11.9871   C.ar      1 RES1   0.0000
    52 H24A    11.3999  -1.9410  11.9470   H         1 RES1   0.0000
    53 C25     10.3756  -0.3436  11.2156   C.ar      1 RES1   0.0000
    54 H25A    11.0613  -0.0397  10.6319   H         1 RES1   0.0000
    55 C26      9.1698   0.3504  11.2950   C.ar      1 RES1   0.0000
    56 H26A     9.0399   1.1307  10.7693   H         1 RES1   0.0000
    57 C27      6.2444   0.9760  13.9858   C.ar      1 RES1   0.0000
    58 C28      7.2711   1.0732  14.9256   C.ar      1 RES1   0.0000
    59 H28A     8.1697   0.9514  14.6460   H         1 RES1   0.0000
    60 C29      7.0067   1.3442  16.2549   C.ar      1 RES1   0.0000
    61 H29A     7.7208   1.4154  16.8793   H         1 RES1   0.0000
    62 C30      5.7008   1.5112  16.6731   C.ar      1 RES1   0.0000
    63 H30A     5.5143   1.6919  17.5874   H         1 RES1   0.0000
    64 C31      4.6608   1.4154  15.7598   C.ar      1 RES1   0.0000
    65 H31A     3.7625   1.5249  16.0489   H         1 RES1   0.0000
    66 C32      4.9319   1.1580  14.4248   C.ar      1 RES1   0.0000
    67 H32A     4.2172   1.1047  13.8023   H         1 RES1   0.0000
    68 C33      6.8675   2.4653  11.6801   C.ar      1 RES1   0.0000
    69 C34      7.5212   3.3811  12.5065   C.ar      1 RES1   0.0000
    70 H34A     7.8939   3.0922  13.3309   H         1 RES1   0.0000
    71 C35      7.6273   4.7088  12.1278   C.ar      1 RES1   0.0000
    72 H35A     8.0809   5.3248  12.6914   H         1 RES1   0.0000
    73 C36      7.0810   5.1387  10.9418   C.ar      1 RES1   0.0000
    74 H36A     7.1332   6.0572  10.7006   H         1 RES1   0.0000
    75 C37      6.4575   4.2393  10.0993   C.ar      1 RES1   0.0000
    76 H37A     6.0980   4.5336   9.2709   H         1 RES1   0.0000
    77 C38      6.3589   2.9020  10.4673   C.ar      1 RES1   0.0000
    78 H38A     5.9395   2.2819   9.8817   H         1 RES1   0.0000
    79 C39      1.4038  -0.1027   5.6690   C.ar      1 RES1   0.0000
    80 C40      2.7486  -0.3970   5.9258   C.ar      1 RES1   0.0000
    81 H40A     3.2920   0.2395   6.3753   H         1 RES1   0.0000
    82 C41      3.2939  -1.6111   5.5268   C.ar      1 RES1   0.0000
    83 H41A     4.2078  -1.8055   5.7015   H         1 RES1   0.0000
    84 C42      2.4948  -2.5392   4.8698   C.ar      1 RES1   0.0000
    85 H42A     2.8628  -3.3728   4.6020   H         1 RES1   0.0000
    86 C43      1.1686  -2.2559   4.6034   C.ar      1 RES1   0.0000
    87 H43A     0.6280  -2.8896   4.1478   H         1 RES1   0.0000
    88 C44      0.6287  -1.0417   5.0040   C.ar      1 RES1   0.0000
    89 H44A    -0.2826  -0.8514   4.8196   H         1 RES1   0.0000
    90 C45     -1.0131   1.2854   6.4627   C.ar      1 RES1   0.0000
    91 C46     -1.4513   1.1690   7.7792   C.ar      1 RES1   0.0000
    92 H46A    -0.8222   1.2114   8.4902   H         1 RES1   0.0000
    93 C47     -2.8000   0.9897   8.0644   C.ar      1 RES1   0.0000
    94 H47A    -3.0887   0.9199   8.9674   H         1 RES1   0.0000
    95 C48     -3.7285   0.9117   7.0338   C.ar      1 RES1   0.0000
    96 H48A    -4.6507   0.7885   7.2285   H         1 RES1   0.0000
    97 C49     -3.3025   1.0171   5.7225   C.ar      1 RES1   0.0000
    98 H49A    -3.9328   0.9609   5.0143   H         1 RES1   0.0000
    99 C50     -1.9570   1.2046   5.4335   C.ar      1 RES1   0.0000
   100 H50A    -1.6760   1.2785   4.5295   H         1 RES1   0.0000
   101 C51      0.8473   2.4790   4.5910   C.ar      1 RES1   0.0000
   102 C52      1.8421   2.2175   3.6629   C.ar      1 RES1   0.0000
   103 H52A     2.4197   1.4756   3.7985   H         1 RES1   0.0000
   104 C53      2.0120   3.0156   2.5366   C.ar      1 RES1   0.0000
   105 H53A     2.6986   2.8212   1.9107   H         1 RES1   0.0000
   106 C54      1.1701   4.0997   2.3356   C.ar      1 RES1   0.0000
   107 H54A     1.2794   4.6500   1.5690   H         1 RES1   0.0000
   108 C55      0.1741   4.3776   3.2478   C.ar      1 RES1   0.0000
   109 H55A    -0.4083   5.1140   3.1018   H         1 RES1   0.0000
   110 C56      0.0169   3.5878   4.3762   C.ar      1 RES1   0.0000
   111 H56A    -0.6598   3.7986   5.0086   H         1 RES1   0.0000
   112 C57      0.0493   5.5521   7.9573   C.ar      1 RES1   0.0000
   113 C58     -1.0034   4.7225   8.3240   C.ar      1 RES1   0.0000
   114 H58A    -0.8259   3.8259   8.5837   H         1 RES1   0.0000
   115 C59     -2.3016   5.1852   8.3144   C.ar      1 RES1   0.0000
   116 H59A    -3.0125   4.6089   8.5723   H         1 RES1   0.0000
   117 C60     -2.5755   6.4842   7.9315   C.ar      1 RES1   0.0000
   118 H60A    -3.4724   6.7977   7.9119   H         1 RES1   0.0000
   119 C61     -1.5341   7.3275   7.5751   C.ar      1 RES1   0.0000
   120 H61A    -1.7164   8.2268   7.3278   H         1 RES1   0.0000
   121 C62     -0.2308   6.8634   7.5776   C.ar      1 RES1   0.0000
   122 H62A     0.4774   7.4424   7.3201   H         1 RES1   0.0000
   123 C63      2.7385   5.8149   6.9393   C.ar      1 RES1   0.0000
   124 C64      3.0290   5.2495   5.6889   C.ar      1 RES1   0.0000
   125 H64A     2.7485   4.3612   5.5030   H         1 RES1   0.0000
   126 C65      3.7132   5.9572   4.7257   C.ar      1 RES1   0.0000
   127 H65A     3.8933   5.5616   3.8805   H         1 RES1   0.0000
   128 C66      4.1372   7.2522   4.9991   C.ar      1 RES1   0.0000
   129 H66A     4.6021   7.7491   4.3367   H         1 RES1   0.0000
   130 C67      3.8829   7.8134   6.2245   C.ar      1 RES1   0.0000
   131 H67A     4.1843   8.6963   6.4077   H         1 RES1   0.0000
   132 C68      3.1938   7.1125   7.1985   C.ar      1 RES1   0.0000
   133 H68A     3.0290   7.5122   8.0436   H         1 RES1   0.0000
   134 C69      2.2259   5.3796   9.7800   C.ar      1 RES1   0.0000
   135 C70      1.6763   6.4719  10.4589   C.ar      1 RES1   0.0000
   136 H70A     1.0716   7.0509  10.0096   H         1 RES1   0.0000
   137 C71      2.0102   6.7169  11.7838   C.ar      1 RES1   0.0000
   138 H71A     1.6268   7.4575  12.2390   H         1 RES1   0.0000
   139 C72      2.8948   5.8902  12.4423   C.ar      1 RES1   0.0000
   140 H72A     3.1122   6.0572  13.3518   H         1 RES1   0.0000
   141 C73      3.4635   4.8238  11.7847   C.ar      1 RES1   0.0000
   142 H73A     4.0871   4.2653  12.2333   H         1 RES1   0.0000
   143 C74      3.1213   4.5665  10.4637   C.ar      1 RES1   0.0000
   144 H74A     3.5071   3.8205  10.0191   H         1 RES1   0.0000
@<TRIPOS>BOND
     1     1     3    1
     2     1     4    1
     3     1     7    1
     4     1     8    1
     5     2     5    1
     6     2     6    1
     7     2     9    1
     8     2    10    1
     9     3    13    1
    10     3    24    1
    11     3    35    1
    12     4    46    1
    13     4    57    1
    14     4    68    1
    15     5    79    1
    16     5    90    1
    17     5   101    1
    18     6   112    1
    19     6   123    1
    20     6   134    1
    21     7    12   un
    22     8    11   un
    23     9    12   un
    24    10    11   un
    25    11    12    1
    26    13    14   ar
    27    13    22   ar
    28    14    15    1
    29    14    16   ar
    30    16    17    1
    31    16    18   ar
    32    18    19    1
    33    18    20   ar
    34    20    21    1
    35    20    22   ar
    36    22    23    1
    37    24    25   ar
    38    24    33   ar
    39    25    26    1
    40    25    27   ar
    41    27    28    1
    42    27    29   ar
    43    29    30    1
    44    29    31   ar
    45    31    32    1
    46    31    33   ar
    47    33    34    1
    48    35    36   ar
    49    35    44   ar
    50    36    37    1
    51    36    38   ar
    52    38    39    1
    53    38    40   ar
    54    40    41    1
    55    40    42   ar
    56    42    43    1
    57    42    44   ar
    58    44    45    1
    59    46    47   ar
    60    46    55   ar
    61    47    48    1
    62    47    49   ar
    63    49    50    1
    64    49    51   ar
    65    51    52    1
    66    51    53   ar
    67    53    54    1
    68    53    55   ar
    69    55    56    1
    70    57    58   ar
    71    57    66   ar
    72    58    59    1
    73    58    60   ar
    74    60    61    1
    75    60    62   ar
    76    62    63    1
    77    62    64   ar
    78    64    65    1
    79    64    66   ar
    80    66    67    1
    81    68    69   ar
    82    68    77   ar
    83    69    70    1
    84    69    71   ar
    85    71    72    1
    86    71    73   ar
    87    73    74    1
    88    73    75   ar
    89    75    76    1
    90    75    77   ar
    91    77    78    1
    92    79    80   ar
    93    79    88   ar
    94    80    81    1
    95    80    82   ar
    96    82    83    1
    97    82    84   ar
    98    84    85    1
    99    84    86   ar
   100    86    87    1
   101    86    88   ar
   102    88    89    1
   103    90    91   ar
   104    90    99   ar
   105    91    92    1
   106    91    93   ar
   107    93    94    1
   108    93    95   ar
   109    95    96    1
   110    95    97   ar
   111    97    98    1
   112    97    99   ar
   113    99   100    1
   114   101   102   ar
   115   101   110   ar
   116   102   103    1
   117   102   104   ar
   118   104   105    1
   119   104   106   ar
   120   106   107    1
   121   106   108   ar
   122   108   109    1
   123   108   110   ar
   124   110   111    1
   125   112   113   ar
   126   112   121   ar
   127   113   114    1
   128   113   115   ar
   129   115   116    1
   130   115   117   ar
   131   117   118    1
   132   117   119   ar
   133   119   120    1
   134   119   121   ar
   135   121   122    1
   136   123   124   ar
   137   123   132   ar
   138   124   125    1
   139   124   126   ar
   140   126   127    1
   141   126   128   ar
   142   128   129    1
   143   128   130   ar
   144   130   131    1
   145   130   132   ar
   146   132   133    1
   147   134   135   ar
   148   134   143   ar
   149   135   136    1
   150   135   137   ar
   151   137   138    1
   152   137   139   ar
   153   139   140    1
   154   139   141   ar
   155   141   142    1
   156   141   143   ar
   157   143   144    1
@<TRIPOS>SUBSTRUCTURE
     1 RES1        1 GROUP             0 ****  ****    0  
@<TRIPOS>CRYSIN
   23.2188   13.6885   19.7387   90.0000  104.7560   90.0000    14     1
