####################################################################### 
# 
# This file contains crystal structure data downloaded from the 
# Cambridge Structural Database (CSD) hosted by the Cambridge 
# Crystallographic Data Centre (CCDC).
# 
# Full information about CCDC data access policies and citation 
# guidelines are available at http://www.ccdc.cam.ac.uk/access/V1 
# 
# Audit and citation data items may have been added by the CCDC. 
# Please retain this information to preserve the provenance of 
# this file and to allow appropriate attribution of the data. 
# 
#######################################################################
@<TRIPOS>MOLECULE
1531861
    82    84     5     0     0
SMALL
USER_CHARGES
****
Generated from the CSD

@<TRIPOS>ATOM
     1 Co1      3.8859   8.5990   3.8183   Co.oh     1 RES1   2.0000
     2 B1       1.2159   6.8959   3.7968   B         1 RES1  -1.0000
     3 O1       2.3016   6.0221   4.3536   O.3       1 RES1   0.0000
     4 O2       0.9832   8.0701   4.6817   O.3       1 RES1   0.0000
     5 O3       1.5161   7.3217   2.3926   O.3       1 RES1   0.0000
     6 N1       3.4325   6.7354   4.7020   N.2       1 RES1   0.0000
     7 N2       5.4930   8.1949   5.2070   N.ar      1 RES1   0.0000
     8 N3       1.9854   9.0087   4.6315   N.2       1 RES1   0.0000
     9 N4       3.8916  10.7162   4.3382   N.ar      1 RES1   0.0000
    10 N5       2.7853   7.8397   2.2307   N.2       1 RES1   0.0000
    11 N6       5.1839   8.7980   2.1067   N.ar      1 RES1   0.0000
    12 C1       4.0111   4.8289   6.1535   C.3       1 RES1   0.0000
    13 H1A      3.1098   4.5106   5.9378   H         1 RES1   0.0000
    14 H1B      4.1114   4.8919   7.1261   H         1 RES1   0.0000
    15 H1C      4.6726   4.2010   5.7963   H         1 RES1   0.0000
    16 C2       4.2213   6.1742   5.5428   C.2       1 RES1   0.0000
    17 C3       5.4037   7.0125   5.8695   C.ar      1 RES1   0.0000
    18 C4       6.3441   6.6282   6.8189   C.ar      1 RES1   0.0000
    19 H4A      6.2479   5.8057   7.2855   H         1 RES1   0.0000
    20 C5       7.4250   7.4610   7.0779   C.ar      1 RES1   0.0000
    21 H5A      8.0793   7.2136   7.7196   H         1 RES1   0.0000
    22 C6       7.5378   8.6544   6.3921   C.ar      1 RES1   0.0000
    23 H6A      8.2742   9.2346   6.5409   H         1 RES1   0.0000
    24 C7       6.5445   8.9851   5.4775   C.ar      1 RES1   0.0000
    25 H7A      6.6133   9.8142   5.0187   H         1 RES1   0.0000
    26 C8       0.4245  10.4526   5.8663   C.3       1 RES1   0.0000
    27 H8A     -0.1544   9.6622   5.8526   H         1 RES1   0.0000
    28 H8B     -0.0150  11.1885   5.3896   H         1 RES1   0.0000
    29 H8C      0.5939  10.7184   6.7937   H         1 RES1   0.0000
    30 C9       1.7211  10.1310   5.1967   C.2       1 RES1   0.0000
    31 C10      2.8093  11.1230   5.0512   C.ar      1 RES1   0.0000
    32 C11      2.7098  12.3994   5.5777   C.ar      1 RES1   0.0000
    33 H11A     1.9430  12.6557   6.0751   H         1 RES1   0.0000
    34 C12      3.7464  13.3036   5.3704   C.ar      1 RES1   0.0000
    35 H12A     3.7138  14.1724   5.7523   H         1 RES1   0.0000
    36 C13      4.8266  12.9142   4.5940   C.ar      1 RES1   0.0000
    37 H13A     5.5340  13.5191   4.4073   H         1 RES1   0.0000
    38 C14      4.8505  11.6180   4.0957   C.ar      1 RES1   0.0000
    39 H14A     5.5855  11.3581   3.5541   H         1 RES1   0.0000
    40 C15      2.3561   7.7592  -0.1944   C.3       1 RES1   0.0000
    41 H15A     1.4867   7.3930   0.0728   H         1 RES1   0.0000
    42 H15B     2.8199   7.1154  -0.7694   H         1 RES1   0.0000
    43 H15C     2.2207   8.5969  -0.6855   H         1 RES1   0.0000
    44 C16      3.1802   8.0233   1.0228   C.2       1 RES1   0.0000
    45 C17      4.5773   8.4993   0.9294   C.ar      1 RES1   0.0000
    46 C18      5.2434   8.5742  -0.2840   C.ar      1 RES1   0.0000
    47 H18A     4.7893   8.3738  -1.0936   H         1 RES1   0.0000
    48 C19      6.5834   8.9445  -0.3036   C.ar      1 RES1   0.0000
    49 H19A     7.0604   8.9947  -1.1252   H         1 RES1   0.0000
    50 C20      7.2076   9.2399   0.8916   C.ar      1 RES1   0.0000
    51 H20A     8.1216   9.4990   0.9095   H         1 RES1   0.0000
    52 C21      6.4785   9.1501   2.0621   C.ar      1 RES1   0.0000
    53 H21A     6.9187   9.3469   2.8810   H         1 RES1   0.0000
    54 C22     -0.1471   6.0634   3.7426   C.ar      1 RES1   0.0000
    55 C23     -0.1567   4.6707   3.6210   C.ar      1 RES1   0.0000
    56 H23A     0.6694   4.2018   3.6022   H         1 RES1   0.0000
    57 C24     -1.3475   3.9496   3.5260   C.ar      1 RES1   0.0000
    58 H24A    -1.3267   3.0021   3.4703   H         1 RES1   0.0000
    59 C25     -2.5645   4.6220   3.5136   C.ar      1 RES1   0.0000
    60 H25A    -3.3774   4.1376   3.4277   H         1 RES1   0.0000
    61 C26     -2.5845   6.0059   3.6281   C.ar      1 RES1   0.0000
    62 H26A    -3.4122   6.4708   3.6201   H         1 RES1   0.0000
    63 C27     -1.3860   6.7151   3.7542   C.ar      1 RES1   0.0000
    64 H27A    -1.4125   7.6595   3.8495   H         1 RES1   0.0000
    65 Cl1      8.5774  12.4209   3.9491   Cl        2 RES2   0.0000
    66 O4       9.9374  12.6688   3.6046   O.2       2 RES2   0.0000
    67 O5       7.5790  12.6550   2.8810   O.3       2 RES2  -1.0000
    68 O6       8.1984  13.3634   4.9719   O.2       2 RES2   0.0000
    69 O7       8.4298  11.0735   4.3084   O.2       2 RES2   0.0000
    70 C1S      9.6302   6.8763  -1.5662   C.3       3 RES3   0.0000
    71 H1SA     9.6050   7.8270  -1.8437   H         3 RES3   0.0000
    72 H1SB    10.4373   6.4635  -1.9646   H         3 RES3   0.0000
    73 Cl1S     9.7340   6.7832   0.1945   Cl        3 RES3   0.0000
    74 Cl2S     8.2021   6.0593  -2.1689   Cl        3 RES3   0.0000
    75 C2S      8.7499  -0.9208   1.3807   C.3       4 RES4   0.0000
    76 H2SA     8.0273  -0.4660   1.8808   H         4 RES4   0.0000
    77 H2SB     8.8044  -1.8555   1.7036   H         4 RES4   0.0000
    78 Cl3S    10.2863  -0.1016   1.6970   Cl        4 RES4   0.0000
    79 Cl4S     8.3592  -0.9195  -0.3492   Cl        4 RES4   0.0000
    80 O5'?     8.1195  11.5980   2.9496   O.3       5 RES5   0.0000
    81 O6'?     8.0853  13.7266   3.8962   O.3       5 RES5   0.0000
    82 O7'?     8.3676  11.8614   5.2385   O.3       5 RES5   0.0000
@<TRIPOS>BOND
     1     1     6    1
     2     1     7    1
     3     1     8    1
     4     1     9    1
     5     1    10    1
     6     1    11    1
     7     2     3    1
     8     2     4    1
     9     2     5    1
    10     2    54    1
    11     3     6    1
    12     4     8    1
    13     5    10    1
    14     6    16    2
    15     7    17   ar
    16     7    24   ar
    17     8    30    2
    18     9    31   ar
    19     9    38   ar
    20    10    44    2
    21    11    45   ar
    22    11    52   ar
    23    12    13    1
    24    12    14    1
    25    12    15    1
    26    12    16    1
    27    16    17    1
    28    17    18   ar
    29    18    19    1
    30    18    20   ar
    31    20    21    1
    32    20    22   ar
    33    22    23    1
    34    22    24   ar
    35    24    25    1
    36    26    27    1
    37    26    28    1
    38    26    29    1
    39    26    30    1
    40    30    31    1
    41    31    32   ar
    42    32    33    1
    43    32    34   ar
    44    34    35    1
    45    34    36   ar
    46    36    37    1
    47    36    38   ar
    48    38    39    1
    49    40    41    1
    50    40    42    1
    51    40    43    1
    52    40    44    1
    53    44    45    1
    54    45    46   ar
    55    46    47    1
    56    46    48   ar
    57    48    49    1
    58    48    50   ar
    59    50    51    1
    60    50    52   ar
    61    52    53    1
    62    54    55   ar
    63    54    63   ar
    64    55    56    1
    65    55    57   ar
    66    57    58    1
    67    57    59   ar
    68    59    60    1
    69    59    61   ar
    70    61    62    1
    71    61    63   ar
    72    63    64    1
    73    65    66    2
    74    65    67    1
    75    65    68    2
    76    65    69    2
    77    70    71    1
    78    70    72    1
    79    70    73    1
    80    70    74    1
    81    75    76    1
    82    75    77    1
    83    75    78    1
    84    75    79    1
@<TRIPOS>SUBSTRUCTURE
     1 RES1        1 GROUP             0 ****  ****    0  
     2 RES2       65 GROUP             0 ****  ****    0  
     3 RES3       70 GROUP             0 ****  ****    0  
     4 RES4       75 GROUP             0 ****  ****    0  
     5 RES5       80 GROUP             0 ****  ****    0  
@<TRIPOS>CRYSIN
   11.1104   11.5375   13.8903   89.3400   81.5970   77.8450     2     1
