####################################################################### 
# 
# This file contains crystal structure data downloaded from the 
# Cambridge Structural Database (CSD) hosted by the Cambridge 
# Crystallographic Data Centre (CCDC).
# 
# Full information about CCDC data access policies and citation 
# guidelines are available at http://www.ccdc.cam.ac.uk/access/V1 
# 
# Audit and citation data items may have been added by the CCDC. 
# Please retain this information to preserve the provenance of 
# this file and to allow appropriate attribution of the data. 
# 
#######################################################################
@<TRIPOS>MOLECULE
1531861
64 72 1 0 0
SMALL
USER_CHARGES

Generated from the CSD
@<TRIPOS>ATOM
      1 Co1         3.8859    8.5990    3.8183 Co.oh     1 RES    2.0000
      2 B1          1.2159    6.8959    3.7968 B         1 RES   -1.0000
      3 O1          2.3016    6.0221    4.3536 O.3       1 RES    0.0000
      4 O2          0.9832    8.0701    4.6817 O.3       1 RES    0.0000
      5 O3          1.5161    7.3217    2.3926 O.3       1 RES    0.0000
      6 N1          3.4325    6.7354    4.7020 N.2       1 RES    0.0000
      7 N2          5.4930    8.1949    5.2070 N.ar      1 RES    0.0000
      8 N3          1.9854    9.0087    4.6315 N.2       1 RES    0.0000
      9 N4          3.8916   10.7162    4.3382 N.ar      1 RES    0.0000
     10 N5          2.7853    7.8397    2.2307 N.2       1 RES    0.0000
     11 N6          5.1839    8.7980    2.1067 N.ar      1 RES    0.0000
     12 C1          4.0111    4.8289    6.1535 C.3       1 RES    0.0000
     13 H1A         3.1098    4.5106    5.9378 H         1 RES    0.0000
     14 H1B         4.1114    4.8919    7.1261 H         1 RES    0.0000
     15 H1C         4.6726    4.2010    5.7963 H         1 RES    0.0000
     16 C2          4.2213    6.1742    5.5428 C.2       1 RES    0.0000
     17 C3          5.4037    7.0125    5.8695 C.ar      1 RES    0.0000
     18 C4          6.3441    6.6282    6.8189 C.ar      1 RES    0.0000
     19 H4A         6.2479    5.8057    7.2855 H         1 RES    0.0000
     20 C5          7.4250    7.4610    7.0779 C.ar      1 RES    0.0000
     21 H5A         8.0793    7.2136    7.7196 H         1 RES    0.0000
     22 C6          7.5378    8.6544    6.3921 C.ar      1 RES    0.0000
     23 H6A         8.2742    9.2346    6.5409 H         1 RES    0.0000
     24 C7          6.5445    8.9851    5.4775 C.ar      1 RES    0.0000
     25 H7A         6.6133    9.8142    5.0187 H         1 RES    0.0000
     26 C8          0.4245   10.4526    5.8663 C.3       1 RES    0.0000
     27 H8A        -0.1544    9.6622    5.8526 H         1 RES    0.0000
     28 H8B        -0.0150   11.1885    5.3896 H         1 RES    0.0000
     29 H8C         0.5939   10.7184    6.7937 H         1 RES    0.0000
     30 C9          1.7211   10.1310    5.1967 C.2       1 RES    0.0000
     31 C10         2.8093   11.1230    5.0512 C.ar      1 RES    0.0000
     32 C11         2.7098   12.3994    5.5777 C.ar      1 RES    0.0000
     33 H11A        1.9430   12.6557    6.0751 H         1 RES    0.0000
     34 C12         3.7464   13.3036    5.3704 C.ar      1 RES    0.0000
     35 H12A        3.7138   14.1724    5.7523 H         1 RES    0.0000
     36 C13         4.8266   12.9142    4.5940 C.ar      1 RES    0.0000
     37 H13A        5.5340   13.5191    4.4073 H         1 RES    0.0000
     38 C14         4.8505   11.6180    4.0957 C.ar      1 RES    0.0000
     39 H14A        5.5855   11.3581    3.5541 H         1 RES    0.0000
     40 C15         2.3561    7.7592   -0.1944 C.3       1 RES    0.0000
     41 H15A        1.4867    7.3930    0.0728 H         1 RES    0.0000
     42 H15B        2.8199    7.1154   -0.7694 H         1 RES    0.0000
     43 H15C        2.2207    8.5969   -0.6855 H         1 RES    0.0000
     44 C16         3.1802    8.0233    1.0228 C.2       1 RES    0.0000
     45 C17         4.5773    8.4993    0.9294 C.ar      1 RES    0.0000
     46 C18         5.2434    8.5742   -0.2840 C.ar      1 RES    0.0000
     47 H18A        4.7893    8.3738   -1.0936 H         1 RES    0.0000
     48 C19         6.5834    8.9445   -0.3036 C.ar      1 RES    0.0000
     49 H19A        7.0604    8.9947   -1.1252 H         1 RES    0.0000
     50 C20         7.2076    9.2399    0.8916 C.ar      1 RES    0.0000
     51 H20A        8.1216    9.4990    0.9095 H         1 RES    0.0000
     52 C21         6.4785    9.1501    2.0621 C.ar      1 RES    0.0000
     53 H21A        6.9187    9.3469    2.8810 H         1 RES    0.0000
     54 C22        -0.1471    6.0634    3.7426 C.ar      1 RES    0.0000
     55 C23        -0.1567    4.6707    3.6210 C.ar      1 RES    0.0000
     56 H23A        0.6694    4.2018    3.6022 H         1 RES    0.0000
     57 C24        -1.3475    3.9496    3.5260 C.ar      1 RES    0.0000
     58 H24A       -1.3267    3.0021    3.4703 H         1 RES    0.0000
     59 C25        -2.5645    4.6220    3.5136 C.ar      1 RES    0.0000
     60 H25A       -3.3774    4.1376    3.4277 H         1 RES    0.0000
     61 C26        -2.5845    6.0059    3.6281 C.ar      1 RES    0.0000
     62 H26A       -3.4122    6.4708    3.6201 H         1 RES    0.0000
     63 C27        -1.3860    6.7151    3.7542 C.ar      1 RES    0.0000
     64 H27A       -1.4125    7.6595    3.8495 H         1 RES    0.0000
@<TRIPOS>BOND
     1    2    3 1
     2    2    4 1
     3    2    5 1
     4    2   54 1
     5    3    6 1
     6    4    8 1
     7    5   10 1
     8    6   16 2
     9    7   17 ar
    10    7   24 ar
    11    8   30 2
    12    9   31 ar
    13    9   38 ar
    14   10   44 2
    15   11   45 ar
    16   11   52 ar
    17   12   13 1
    18   12   14 1
    19   12   15 1
    20   12   16 1
    21   16   17 1
    22   17   18 ar
    23   18   19 1
    24   18   20 ar
    25   20   21 1
    26   20   22 ar
    27   22   23 1
    28   22   24 ar
    29   24   25 1
    30   26   27 1
    31   26   28 1
    32   26   29 1
    33   26   30 1
    34   30   31 1
    35   31   32 ar
    36   32   33 1
    37   32   34 ar
    38   34   35 1
    39   34   36 ar
    40   36   37 1
    41   36   38 ar
    42   38   39 1
    43   40   41 1
    44   40   42 1
    45   40   43 1
    46   40   44 1
    47   44   45 1
    48   45   46 ar
    49   46   47 1
    50   46   48 ar
    51   48   49 1
    52   48   50 ar
    53   50   51 1
    54   50   52 ar
    55   52   53 1
    56   54   55 ar
    57   54   63 ar
    58   55   56 1
    59   55   57 ar
    60   57   58 1
    61   57   59 ar
    62   59   60 1
    63   59   61 ar
    64   61   62 1
    65   61   63 ar
    66   63   64 1
    67    1    8 1
    68    1    7 1
    69    1    6 1
    70    1   11 1
    71    1   10 1
    72    1    9 1
@<TRIPOS>SUBSTRUCTURE
     1 RES     1 RESIDUE           4 A     RES     0 ROOT
