@<TRIPOS>MOLECULE
Coordinates from ORCA-job NiL2
    63    68     1     0     0
SMALL
USER_CHARGES
****
Generated from the CSD

@<TRIPOS>ATOM
     1 Ni       6.2478   2.7667  -1.8906   Ni        1 RES1   2.0000
     2 S       10.9881   7.4638   3.7370   S.3       1 RES1   0.0000
     3 S        1.6998  10.1220   0.2008   S.3       1 RES1   0.0000
     4 O        7.2044   3.6784  -3.5161   O.3       1 RES1   0.0000
     5 O        7.6032   1.2433  -2.3136   O.3       1 RES1   0.0000
     6 H        7.2591   0.3345  -2.2588   H         1 RES1   0.0000
     7 H        8.2651   1.3858  -1.5102   H         1 RES1   0.0000
     8 O        7.4462   3.4773  -0.4797   O.co2     1 RES1  -1.0000
     9 N       10.7585   4.9419   2.2813   N.2       1 RES1   0.0000
    10 O        9.0877   1.9561  -0.2896   O.co2     1 RES1   0.0000
    11 O        5.3366   1.5183  -0.4053   O.3       1 RES1   0.0000
    12 H        6.0340   1.5664   0.2806   H         1 RES1   0.0000
    13 O        4.7714   1.9387  -3.1958   O.3       1 RES1   0.0000
    14 C        9.1718   3.9413   0.9947   C.2       1 RES1   0.0000
    15 C        8.6090   5.0994   1.5213   C.2       1 RES1   0.0000
    16 N        8.5005   7.6545   2.9502   N.2       1 RES1   0.0000
    17 C        9.5900  10.9805   5.1845   C.ar      1 RES1   0.0000
    18 H        9.8890  11.8496   5.7809   H         1 RES1   0.0000
    19 C        8.2989  10.9259   4.6555   C.ar      1 RES1   0.0000
    20 H        7.6037  11.7501   4.8501   H         1 RES1   0.0000
    21 N        2.9954   7.8939  -0.5681   N.pl3     1 RES1   0.0000
    22 N        4.2101   9.5098   0.6380   N.2       1 RES1   0.0000
    23 C        8.5312   3.0602   0.0170   C.2       1 RES1   0.0000
    24 N        7.3827   5.6096   1.3799   N.pl3     1 RES1   0.0000
    25 N        9.5871   5.6912   2.2744   N.pl3     1 RES1   0.0000
    26 C        9.5521   6.9035   2.9226   C.2       1 RES1   0.0000
    27 C        8.7832   8.8046   3.6766   C.ar      1 RES1   0.0000
    28 C       10.0860   8.8804   4.2042   C.ar      1 RES1   0.0000
    29 C       10.4987   9.9633   4.9731   C.ar      1 RES1   0.0000
    30 H       11.5096  10.0115   5.3896   H         1 RES1   0.0000
    31 C        7.8786   9.8395   3.9160   C.ar      1 RES1   0.0000
    32 H        6.8617   9.7666   3.5207   H         1 RES1   0.0000
    33 C       10.4823   3.9069   1.5231   C.2       1 RES1   0.0000
    34 H       11.2390   3.1404   1.3442   H         1 RES1   0.0000
    35 O        5.1494   4.4364  -1.6225   O.co2     1 RES1  -1.0000
    36 C        3.9874   4.7217  -2.0582   C.2       1 RES1   0.0000
    37 C        3.3758   5.9641  -1.5803   C.2       1 RES1   0.0000
    38 C        2.0486   6.4195  -1.7649   C.2       1 RES1   0.0000
    39 H        1.2705   5.9096  -2.3370   H         1 RES1   0.0000
    40 N        1.7910   7.5677  -1.1852   N.2       1 RES1   0.0000
    41 C        3.9727   6.9416  -0.7994   C.2       1 RES1   0.0000
    42 N        5.2168   7.0434  -0.3055   N.pl3     1 RES1   0.0000
    43 H        5.4959   7.9536   0.0739   H         1 RES1   0.0000
    44 H        5.8987   6.4041  -0.7132   H         1 RES1   0.0000
    45 C        3.1093   9.0896   0.0996   C.2       1 RES1   0.0000
    46 C        2.6987  11.2823   1.0402   C.ar      1 RES1   0.0000
    47 C        2.3555  12.5361   1.5291   C.ar      1 RES1   0.0000
    48 H        1.3391  12.9270   1.4168   H         1 RES1   0.0000
    49 C        3.3367  13.2842   2.1606   C.ar      1 RES1   0.0000
    50 H        3.0865  14.2777   2.5481   H         1 RES1   0.0000
    51 C        4.6321  12.7920   2.3042   C.ar      1 RES1   0.0000
    52 H        5.3909  13.4061   2.8016   H         1 RES1   0.0000
    53 C        4.9725  11.5419   1.8254   C.ar      1 RES1   0.0000
    54 H        5.9899  11.1518   1.9163   H         1 RES1   0.0000
    55 C        4.0002  10.7799   1.1822   C.ar      1 RES1   0.0000
    56 O        3.3473   4.0019  -2.8800   O.co2     1 RES1   0.0000
    57 H        6.7399   5.1034   0.7719   H         1 RES1   0.0000
    58 H        7.1485   6.4828   1.8564   H         1 RES1   0.0000
    59 H        4.2967   1.2440  -2.7051   H         1 RES1   0.0000
    60 H        7.7721   2.9105  -3.7415   H         1 RES1   0.0000
    61 H        4.1233   2.7667  -3.1656   H         1 RES1   0.0000
    62 H        7.8153   4.3339  -3.1287   H         1 RES1   0.0000
    63 H        4.6282   2.0891  -0.0459   H         1 RES1   0.0000
@<TRIPOS>BOND
     1     1     4    1
     2     1     5    1
     3     1     8    1
     4     1    11    1
     5     1    13    1
     6     1    35    1
     7     2    26    1
     8     2    28    1
     9     3    45    1
    10     3    46    1
    11     4    60    1
    12     4    62    1
    13     5     6    1
    14     5     7    1
    15     8    23    1
    16     9    25    1
    17     9    33    2
    18    10    23    2
    19    11    12    1
    20    11    63    1
    21    13    59    1
    22    13    61    1
    23    14    15    2
    24    14    23    1
    25    14    33    1
    26    15    24    1
    27    15    25    1
    28    16    26    2
    29    16    27    1
    30    17    18    1
    31    17    19   ar
    32    17    29   ar
    33    19    20    1
    34    19    31   ar
    35    21    40    1
    36    21    41    1
    37    21    45    1
    38    22    45    2
    39    22    55    1
    40    24    57    1
    41    24    58    1
    42    25    26    1
    43    27    28   ar
    44    27    31   ar
    45    28    29   ar
    46    29    30    1
    47    31    32    1
    48    33    34    1
    49    35    36    1
    50    36    37    1
    51    36    56    2
    52    37    38    1
    53    37    41    2
    54    38    39    1
    55    38    40    2
    56    41    42    1
    57    42    43    1
    58    42    44    1
    59    46    47   ar
    60    46    55   ar
    61    47    48    1
    62    47    49   ar
    63    49    50    1
    64    49    51   ar
    65    51    52    1
    66    51    53   ar
    67    53    54    1
    68    53    55   ar
@<TRIPOS>SUBSTRUCTURE
     1 RES1        1 GROUP             0 ****  ****    0  
