@<TRIPOS>MOLECULE
*****
 29 30 0 0 0
SMALL
GASTEIGER

@<TRIPOS>ATOM
      1 O          -2.6479    2.5422   -0.3287 O.co2   1  UNL1       -0.5000
      2 C          -1.9789    1.3715   -0.4561 C.2     1  UNL1        0.0000
      3 C          -0.5732    1.2953   -0.2674 C.ar    1  UNL1        0.0000
      4 O          -2.6639    0.3655   -0.7516 O.2     1  UNL1       -0.5000
      5 C           0.2051    2.4772   -0.1843 C.ar    1  UNL1        0.0000
      6 C           1.5990    2.4139   -0.0049 C.ar    1  UNL1        0.0000
      7 C           2.2385    1.1667    0.1019 C.ar    1  UNL1        0.0000
      8 C           1.4846   -0.0172    0.0308 C.ar    1  UNL1        0.0000
      9 C           0.0899    0.0476   -0.1524 C.ar    1  UNL1        0.0000
     10 O          -4.2657    1.3656    3.4136 O.co2   1  UNL1       -0.5000
     11 C          -5.4749    1.1109    2.8593 C.2     1  UNL1        0.0000
     12 C          -6.5786    1.9841    3.0517 C.ar    1  UNL1        0.0000
     13 O          -5.5670    0.0665    2.1742 O.2     1  UNL1       -0.5000
     14 C          -6.5192    3.0124    4.0257 C.ar    1  UNL1        0.0000
     15 C          -7.6088    3.8784    4.2301 C.ar    1  UNL1        0.0000
     16 C          -8.7751    3.7357    3.4586 C.ar    1  UNL1        0.0000
     17 C          -8.8517    2.7283    2.4817 C.ar    1  UNL1        0.0000
     18 C          -7.7617    1.8598    2.2806 C.ar    1  UNL1        0.0000
     19 CU         -3.3457    2.2470    1.6826 Cu      1  UNL1        0.0000
     20 H          -0.2573    3.3970   -0.2564 H       1  UNL1        0.0000
     21 H           2.1522    3.2835    0.0483 H       1  UNL1        0.0000
     22 H           3.2612    1.1204    0.2325 H       1  UNL1        0.0000
     23 H           1.9527   -0.9333    0.1128 H       1  UNL1        0.0000
     24 H          -0.4574   -0.8258   -0.2037 H       1  UNL1        0.0000
     25 H          -5.6646    3.1273    4.5928 H       1  UNL1        0.0000
     26 H          -7.5518    4.6188    4.9468 H       1  UNL1        0.0000
     27 H          -9.5747    4.3704    3.6095 H       1  UNL1        0.0000
     28 H          -9.7061    2.6251    1.9122 H       1  UNL1        0.0000
     29 H          -7.8250    1.1222    1.5616 H       1  UNL1        0.0000
@<TRIPOS>BOND
     1     1     2    1
     2     2     3    1
     3     2     4    2
     4     5     6   ar
     5     6     7   ar
     6     7     8   ar
     7     8     9   ar
     8     3     5   ar
     9     3     9   ar
    10    10    11    1
    11    11    12    1
    12    11    13    2
    13    14    15   ar
    14    15    16   ar
    15    16    17   ar
    16    17    18   ar
    17    12    14   ar
    18    12    18   ar
    19     1    19    9
    20    10    19    9
    21     5    20    1
    22     6    21    1
    23     7    22    1
    24     8    23    1
    25     9    24    1
    26    14    25    1
    27    15    26    1
    28    16    27    1
    29    17    28    1
    30    18    29    1
